* Copyright 2025 ICsprout Integrated Circuit Co., Ltd.
*
* Licensed under the Apache License, Version 2.0 (the "License");
* you may not use this file except in compliance with the License.
* You may obtain a copy of the License at
*
*     http://www.apache.org/licenses/LICENSE-2.0
*
* Unless required by applicable law or agreed to in writing, software
* distributed under the License is distributed on an "AS IS" BASIS,
* WITHOUT WARRANTIES OR CONDITIONS OF ANY KIND, either express or implied.
* See the License for the specific language governing permissions and
* limitations under the License.

************************************************************************
* Library Name: ICSCORE
* Cell Name:    INV
* View Name:    schematic
************************************************************************

.SUBCKT INV A VDD VSS Y
*.PININFO A:I Y:O VDD:B VSS:B
MMN0 Y A VSS VSS nm1p2_svt_lp W=nw L=nl m=1
MMP0 Y A VDD VDD pm1p2_svt_lp W=pw L=pl m=1
.ENDS

************************************************************************
* Library Name: ICSN55H7RVT
* Cell Name:    ADDFX1H7R
* View Name:    schematic
************************************************************************

.SUBCKT ADDFX1H7R A B CI CO S VDD VSS
*.PININFO A:I B:I CI:I CO:O S:O VDD:B VSS:B
MMM12 net90 A net29 VDD pm1p2_svt_lp W=190n L=60n m=1
MMM10 net29 net62 VDD VDD pm1p2_svt_lp W=190n L=60n m=1
MMM2 net9 B VDD VDD pm1p2_svt_lp W=190n L=60n m=1
MMM11 net90 B net29 VDD pm1p2_svt_lp W=190n L=60n m=1
MMM6 net25 CI VDD VDD pm1p2_svt_lp W=190n L=60n m=1
MMM13 net90 CI net29 VDD pm1p2_svt_lp W=190n L=60n m=1
MMM7 net62 A net25 VDD pm1p2_svt_lp W=190n L=60n m=1
MMM8 net62 B net25 VDD pm1p2_svt_lp W=190n L=60n m=1
MMM25 net49 B VDD VDD pm1p2_svt_lp W=230n L=60n m=1
MMM23 net90 A net53 VDD pm1p2_svt_lp W=230n L=60n m=1
MMM0 net62 A net9 VDD pm1p2_svt_lp W=190n L=60n m=1
MMM22 net53 CI net49 VDD pm1p2_svt_lp W=230n L=60n m=1
MMM20 net102 CI net110 VSS nm1p2_svt_lp W=180n L=60n m=1
MMM3 net66 B VSS VSS nm1p2_svt_lp W=150n L=60n m=1
MMM24 net110 B VSS VSS nm1p2_svt_lp W=180n L=60n m=1
MMM5 net62 A net77 VSS nm1p2_svt_lp W=150n L=60n m=1
MMM14 net93 net62 VSS VSS nm1p2_svt_lp W=150n L=60n m=1
MMM16 net90 A net93 VSS nm1p2_svt_lp W=150n L=60n m=1
MMM1 net62 A net66 VSS nm1p2_svt_lp W=150n L=60n m=1
MMM17 net90 CI net93 VSS nm1p2_svt_lp W=150n L=60n m=1
MMM15 net90 B net93 VSS nm1p2_svt_lp W=150n L=60n m=1
MMM9 net62 B net77 VSS nm1p2_svt_lp W=150n L=60n m=1
MMM21 net90 A net102 VSS nm1p2_svt_lp W=180n L=60n m=1
MMM4 net77 CI VSS VSS nm1p2_svt_lp W=150n L=60n m=1
XI2 net90 VDD VSS S / INV pl=6e-08 pw=2.7e-07 nl=6e-08 nw=2.1e-07
XXI2 net62 VDD VSS CO / INV pl=6e-08 pw=2.7e-07 nl=6e-08 nw=2.1e-07
.ENDS

************************************************************************

************************************************************************



************************************************************************
* Library Name: ICSN55H7RVT
* Cell Name:    ADDFX1P4H7R
* View Name:    schematic
************************************************************************

.SUBCKT ADDFX1P4H7R A B CI CO S VDD VSS
*.PININFO A:I B:I CI:I CO:O S:O VDD:B VSS:B
MMM12 net90 A net29 VDD pm1p2_svt_lp W=190n L=60n m=1
MMM10 net29 net62 VDD VDD pm1p2_svt_lp W=190n L=60n m=1
MMM2 net9 B VDD VDD pm1p2_svt_lp W=190n L=60n m=1
MMM11 net90 B net29 VDD pm1p2_svt_lp W=190n L=60n m=1
MMM6 net25 CI VDD VDD pm1p2_svt_lp W=190n L=60n m=1
MMM13 net90 CI net29 VDD pm1p2_svt_lp W=190n L=60n m=1
MMM7 net62 A net25 VDD pm1p2_svt_lp W=190n L=60n m=1
MMM8 net62 B net25 VDD pm1p2_svt_lp W=190n L=60n m=1
MMM25 net49 B VDD VDD pm1p2_svt_lp W=230n L=60n m=1
MMM23 net90 A net53 VDD pm1p2_svt_lp W=230n L=60n m=1
MMM0 net62 A net9 VDD pm1p2_svt_lp W=190n L=60n m=1
MMM22 net53 CI net49 VDD pm1p2_svt_lp W=230n L=60n m=1
MMM20 net102 CI net110 VSS nm1p2_svt_lp W=180n L=60n m=1
MMM3 net66 B VSS VSS nm1p2_svt_lp W=150n L=60n m=1
MMM24 net110 B VSS VSS nm1p2_svt_lp W=180n L=60n m=1
MMM5 net62 A net77 VSS nm1p2_svt_lp W=150n L=60n m=1
MMM14 net93 net62 VSS VSS nm1p2_svt_lp W=150n L=60n m=1
MMM16 net90 A net93 VSS nm1p2_svt_lp W=150n L=60n m=1
MMM1 net62 A net66 VSS nm1p2_svt_lp W=150n L=60n m=1
MMM17 net90 CI net93 VSS nm1p2_svt_lp W=150n L=60n m=1
MMM15 net90 B net93 VSS nm1p2_svt_lp W=150n L=60n m=1
MMM9 net62 B net77 VSS nm1p2_svt_lp W=150n L=60n m=1
MMM21 net90 A net102 VSS nm1p2_svt_lp W=180n L=60n m=1
MMM4 net77 CI VSS VSS nm1p2_svt_lp W=150n L=60n m=1
XI3 net90 VDD VSS S / INV pl=6e-08 pw=3.14e-07 nl=6e-08 nw=2.46e-07
XXI2 net62 VDD VSS CO / INV pl=6e-08 pw=3.14e-07 nl=6e-08 nw=2.46e-07
.ENDS

************************************************************************

************************************************************************



************************************************************************
* Library Name: ICSN55H7RVT
* Cell Name:    ADDFX2H7R
* View Name:    schematic
************************************************************************

.SUBCKT ADDFX2H7R A B CI CO S VDD VSS
*.PININFO A:I B:I CI:I CO:O S:O VDD:B VSS:B
XI14 net30 VDD VSS S / INV pl=6e-08 pw=3.8e-07 nl=6e-08 nw=3e-07
XXI2 net58 VDD VSS CO / INV pl=6e-08 pw=3.8e-07 nl=6e-08 nw=3e-07
MMM17 net30 CI net33 VSS nm1p2_svt_lp W=150n L=60n m=1
MMM16 net30 A net33 VSS nm1p2_svt_lp W=150n L=60n m=1
MMM24 net10 B VSS VSS nm1p2_svt_lp W=180n L=60n m=1
MMM15 net30 B net33 VSS nm1p2_svt_lp W=150n L=60n m=1
MMM20 net18 CI net10 VSS nm1p2_svt_lp W=180n L=60n m=1
MMM14 net33 net58 VSS VSS nm1p2_svt_lp W=150n L=60n m=1
MMM9 net58 B net49 VSS nm1p2_svt_lp W=150n L=60n m=1
MMM21 net30 A net18 VSS nm1p2_svt_lp W=180n L=60n m=1
MMM5 net58 A net49 VSS nm1p2_svt_lp W=150n L=60n m=1
MMM1 net58 A net54 VSS nm1p2_svt_lp W=150n L=60n m=1
MMM3 net54 B VSS VSS nm1p2_svt_lp W=150n L=60n m=1
MMM4 net49 CI VSS VSS nm1p2_svt_lp W=150n L=60n m=1
MMM6 net101 CI VDD VDD pm1p2_svt_lp W=190n L=60n m=1
MMM25 net77 B VDD VDD pm1p2_svt_lp W=230n L=60n m=1
MMM2 net117 B VDD VDD pm1p2_svt_lp W=190n L=60n m=1
MMM22 net73 CI net77 VDD pm1p2_svt_lp W=230n L=60n m=1
MMM13 net30 CI net97 VDD pm1p2_svt_lp W=190n L=60n m=1
MMM10 net97 net58 VDD VDD pm1p2_svt_lp W=190n L=60n m=1
MMM7 net58 A net101 VDD pm1p2_svt_lp W=190n L=60n m=1
MMM12 net30 A net97 VDD pm1p2_svt_lp W=190n L=60n m=1
MMM11 net30 B net97 VDD pm1p2_svt_lp W=190n L=60n m=1
MMM0 net58 A net117 VDD pm1p2_svt_lp W=190n L=60n m=1
MMM8 net58 B net101 VDD pm1p2_svt_lp W=190n L=60n m=1
MMM23 net30 A net73 VDD pm1p2_svt_lp W=230n L=60n m=1
.ENDS

************************************************************************
* Library Name: ICSCORE
* Cell Name:    TG
* View Name:    schematic
************************************************************************

.SUBCKT TG CK CKN D Q VDD VSS
*.PININFO CK:I CKN:I D:B Q:B VDD:B VSS:B
MMN0 D CK Q VSS nm1p2_svt_lp W=nw L=nl m=1
MMP0 D CKN Q VDD pm1p2_svt_lp W=pw L=pl m=1
.ENDS

************************************************************************

************************************************************************



************************************************************************
* Library Name: ICSCORE
* Cell Name:    NAND2
* View Name:    schematic
************************************************************************

.SUBCKT NAND2 A B VDD VSS Y
*.PININFO A:I B:I Y:O VDD:B VSS:B
MMN0 Y B net15 VSS nm1p2_svt_lp W=nw L=nl m=1
MMN2 net15 A VSS VSS nm1p2_svt_lp W=nw L=nl m=1
MMP2 Y A VDD VDD pm1p2_svt_lp W=pw L=pl m=1
MMP0 Y B VDD VDD pm1p2_svt_lp W=pw L=pl m=1
.ENDS

************************************************************************
* Library Name: ICSN55H7RVT
* Cell Name:    ADDHX1H7R
* View Name:    schematic
************************************************************************

.SUBCKT ADDHX1H7R A B CO S VDD VSS
*.PININFO A:I B:I CO:O S:O VDD:B VSS:B
XI13 BN B net45 net_25 VDD VSS / TG pl=6E-08 pw=3.4E-07 nl=6E-08 nw=2.4E-07
XXI12 B BN net034 net_25 VDD VSS / TG pl=6E-08 pw=3.4E-07 nl=6E-08 nw=2.4E-07
XI12 A VDD VSS net45 / INV pl=6E-08 pw=3.4E-07 nl=6E-08 nw=2.4E-07
XI14 net_25 VDD VSS S / INV pl=6E-08 pw=3.4E-07 nl=6E-08 nw=2.4E-07
XXI11 net45 VDD VSS net034 / INV pl=6E-08 pw=2.8E-07 nl=6E-08 nw=2E-07
XI9 B VDD VSS BN / INV pl=6E-08 pw=3.4E-07 nl=6E-08 nw=2.4E-07
XI11 net_7 VDD VSS CO / INV pl=6E-08 pw=3.4E-07 nl=6E-08 nw=2.4E-07
XI10 B A VDD VSS net_7 / NAND2 pl=6E-08 pw=2E-07 nl=6E-08 nw=2E-07
.ENDS

************************************************************************
* Library Name: ICSCORE
* Cell Name:    TG
* View Name:    schematic
************************************************************************

.SUBCKT TG CK CKN D Q VDD VSS
*.PININFO CK:I CKN:I D:B Q:B VDD:B VSS:B
MMN0 D CK Q VSS nm1p2_svt_lp W=nw L=nl m=1
MMP0 D CKN Q VDD pm1p2_svt_lp W=pw L=pl m=1
.ENDS

************************************************************************

************************************************************************



************************************************************************
* Library Name: ICSCORE
* Cell Name:    NAND2
* View Name:    schematic
************************************************************************

.SUBCKT NAND2 A B VDD VSS Y
*.PININFO A:I B:I Y:O VDD:B VSS:B
MMN0 Y B net15 VSS nm1p2_svt_lp W=nw L=nl m=1
MMN2 net15 A VSS VSS nm1p2_svt_lp W=nw L=nl m=1
MMP2 Y A VDD VDD pm1p2_svt_lp W=pw L=pl m=1
MMP0 Y B VDD VDD pm1p2_svt_lp W=pw L=pl m=1
.ENDS

************************************************************************
* Library Name: ICSN55H7RVT
* Cell Name:    ADDHX1P4H7R
* View Name:    schematic
************************************************************************

.SUBCKT ADDHX1P4H7R A B CO S VDD VSS
*.PININFO A:I B:I CO:O S:O VDD:B VSS:B
XI18 BN B net45 net_25 VDD VSS / TG pl=6E-08 pw=3.64E-07 nl=6E-08 nw=2.56E-07
XI9 B BN net034 net_25 VDD VSS / TG pl=6E-08 pw=3.64E-07 nl=6E-08 nw=2.56E-07
XI20 A VDD VSS net45 / INV pl=6E-08 pw=4E-07 nl=6E-08 nw=2.8E-07
XI15 net_25 VDD VSS S / INV pl=6E-08 pw=3.64E-07 nl=6E-08 nw=2.56E-07
XI17 B VDD VSS BN / INV pl=6E-08 pw=3.64E-07 nl=6E-08 nw=2.56E-07
XI16 net45 VDD VSS net034 / INV pl=6E-08 pw=3.64E-07 nl=6E-08 nw=2.56E-07
XI19 net_7 VDD VSS CO / INV pl=6E-08 pw=3.64E-07 nl=6E-08 nw=2.56E-07
XI11 B A VDD VSS net_7 / NAND2 pl=6E-08 pw=2E-07 nl=6E-08 nw=2E-07
.ENDS

************************************************************************
* Library Name: ICSCORE
* Cell Name:    TG
* View Name:    schematic
************************************************************************

.SUBCKT TG CK CKN D Q VDD VSS
*.PININFO CK:I CKN:I D:B Q:B VDD:B VSS:B
MMN0 D CK Q VSS nm1p2_svt_lp W=nw L=nl m=1
MMP0 D CKN Q VDD pm1p2_svt_lp W=pw L=pl m=1
.ENDS

************************************************************************

************************************************************************



************************************************************************
* Library Name: ICSCORE
* Cell Name:    NAND2
* View Name:    schematic
************************************************************************

.SUBCKT NAND2 A B VDD VSS Y
*.PININFO A:I B:I Y:O VDD:B VSS:B
MMN0 Y B net15 VSS nm1p2_svt_lp W=nw L=nl m=1
MMN2 net15 A VSS VSS nm1p2_svt_lp W=nw L=nl m=1
MMP2 Y A VDD VDD pm1p2_svt_lp W=pw L=pl m=1
MMP0 Y B VDD VDD pm1p2_svt_lp W=pw L=pl m=1
.ENDS

************************************************************************
* Library Name: ICSN55H7RVT
* Cell Name:    ADDHX2H7R
* View Name:    schematic
************************************************************************

.SUBCKT ADDHX2H7R A B CO S VDD VSS
*.PININFO A:I B:I CO:O S:O VDD:B VSS:B
XI14 BN B net45 net_25 VDD VSS / TG pl=6E-08 pw=4E-07 nl=6E-08 nw=2.8E-07
XI9 B BN net034 net_25 VDD VSS / TG pl=6E-08 pw=4E-07 nl=6E-08 nw=2.8E-07
XI8 A VDD VSS net45 / INV pl=6E-08 pw=6E-07 nl=6E-08 nw=4.2E-07
XI15 net_25 VDD VSS S / INV pl=6E-08 pw=4E-07 nl=6E-08 nw=2.8E-07
XI13 net45 VDD VSS net034 / INV pl=6E-08 pw=4E-07 nl=6E-08 nw=2.8E-07
XI10 B VDD VSS BN / INV pl=6E-08 pw=4E-07 nl=6E-08 nw=2.8E-07
XI12 net_7 VDD VSS CO / INV pl=6E-08 pw=4E-07 nl=6E-08 nw=2.8E-07
XI11 B A VDD VSS net_7 / NAND2 pl=6E-08 pw=2E-07 nl=6E-08 nw=2E-07
.ENDS

************************************************************************

************************************************************************



************************************************************************
* Library Name: ICSN55H7RVT
* Cell Name:    AND2X0P5H7R
* View Name:    schematic
************************************************************************

.SUBCKT AND2X0P5H7R A B VDD VSS Y
*.PININFO A:I B:I Y:O VDD:B VSS:B
MMN0 net26 B net6 VSS nm1p2_svt_lp W=150n L=60n m=1
MMN1 net6 A VSS VSS nm1p2_svt_lp W=150n L=60n m=1
MMP1 net26 B VDD VDD pm1p2_svt_lp W=190n L=60n m=1
MMP0 net26 A VDD VDD pm1p2_svt_lp W=190n L=60n m=1
XXI2 net26 VDD VSS Y / INV pl=6e-08 pw=1.9e-07 nl=6e-08 nw=1.5e-07
.ENDS

************************************************************************

************************************************************************



************************************************************************
* Library Name: ICSN55H7RVT
* Cell Name:    AND2X0P7H7R
* View Name:    schematic
************************************************************************

.SUBCKT AND2X0P7H7R A B VDD VSS Y
*.PININFO A:I B:I Y:O VDD:B VSS:B
MMN0 net26 B net6 VSS nm1p2_svt_lp W=150n L=60n m=1
MMN1 net6 A VSS VSS nm1p2_svt_lp W=150n L=60n m=1
MMP1 net26 B VDD VDD pm1p2_svt_lp W=190n L=60n m=1
MMP0 net26 A VDD VDD pm1p2_svt_lp W=190n L=60n m=1
XXI2 net26 VDD VSS Y / INV pl=6e-08 pw=2.22e-07 nl=6e-08 nw=1.74e-07
.ENDS

************************************************************************

************************************************************************



************************************************************************
* Library Name: ICSN55H7RVT
* Cell Name:    AND2X12H7R
* View Name:    schematic
************************************************************************

.SUBCKT AND2X12H7R A B VDD VSS Y
*.PININFO A:I B:I Y:O VDD:B VSS:B
MMN0 net26 B net6 VSS nm1p2_svt_lp W=900n L=60n m=1
MMN1 net6 A VSS VSS nm1p2_svt_lp W=900n L=60n m=1
MMP1 net26 B VDD VDD pm1p2_svt_lp W=930n L=60n m=1
MMP0 net26 A VDD VDD pm1p2_svt_lp W=930n L=60n m=1
XXI2 net26 VDD VSS Y / INV pl=6e-08 pw=22.8e-07 nl=6e-08 nw=18e-07
.ENDS

************************************************************************

************************************************************************



************************************************************************
* Library Name: ICSN55H7RVT
* Cell Name:    AND2X16H7R
* View Name:    schematic
************************************************************************

.SUBCKT AND2X16H7R A B VDD VSS Y
*.PININFO A:I B:I Y:O VDD:B VSS:B
MMN0 net26 B net6 VSS nm1p2_svt_lp W=1.2u L=60n m=1
MMN1 net6 A VSS VSS nm1p2_svt_lp W=1.2u L=60n m=1
MMP1 net26 B VDD VDD pm1p2_svt_lp W=1.24u L=60n m=1
MMP0 net26 A VDD VDD pm1p2_svt_lp W=1.24u L=60n m=1
XXI2 net26 VDD VSS Y / INV pl=6e-08 pw=30.4e-07 nl=6e-08 nw=24e-07
.ENDS

************************************************************************

************************************************************************



************************************************************************
* Library Name: ICSN55H7RVT
* Cell Name:    AND2X1H7R
* View Name:    schematic
************************************************************************

.SUBCKT AND2X1H7R A B VDD VSS Y
*.PININFO A:I B:I Y:O VDD:B VSS:B
MMN0 net26 B net6 VSS nm1p2_svt_lp W=150n L=60n m=1
MMN1 net6 A VSS VSS nm1p2_svt_lp W=150n L=60n m=1
MPM0 net26 B VDD VDD pm1p2_svt_lp W=190n L=60n m=1
MMP0 net26 A VDD VDD pm1p2_svt_lp W=190n L=60n m=1
XXI2 net26 VDD VSS Y / INV pl=6e-08 pw=2.7e-07 nl=6e-08 nw=2.1e-07
.ENDS

************************************************************************

************************************************************************



************************************************************************
* Library Name: ICSN55H7RVT
* Cell Name:    AND2X1P4H7R
* View Name:    schematic
************************************************************************

.SUBCKT AND2X1P4H7R A B VDD VSS Y
*.PININFO A:I B:I Y:O VDD:B VSS:B
MMN0 net26 B net6 VSS nm1p2_svt_lp W=150n L=60n m=1
MMN1 net6 A VSS VSS nm1p2_svt_lp W=150n L=60n m=1
MMP1 net26 B VDD VDD pm1p2_svt_lp W=190n L=60n m=1
MMP0 net26 A VDD VDD pm1p2_svt_lp W=190n L=60n m=1
XXI2 net26 VDD VSS Y / INV pl=6e-08 pw=3.14e-07 nl=6e-08 nw=2.46e-07
.ENDS

************************************************************************

************************************************************************



************************************************************************
* Library Name: ICSN55H7RVT
* Cell Name:    AND2X2H7R
* View Name:    schematic
************************************************************************

.SUBCKT AND2X2H7R A B VDD VSS Y
*.PININFO A:I B:I Y:O VDD:B VSS:B
MMN0 net26 B net6 VSS nm1p2_svt_lp W=150n L=60n m=1
MMN1 net6 A VSS VSS nm1p2_svt_lp W=150n L=60n m=1
MMP1 net26 B VDD VDD pm1p2_svt_lp W=190n L=60n m=1
MMP0 net26 A VDD VDD pm1p2_svt_lp W=190n L=60n m=1
XXI2 net26 VDD VSS Y / INV pl=6e-08 pw=3.8e-07 nl=6e-08 nw=3e-07
.ENDS

************************************************************************

************************************************************************



************************************************************************
* Library Name: ICSN55H7RVT
* Cell Name:    AND2X3H7R
* View Name:    schematic
************************************************************************

.SUBCKT AND2X3H7R A B VDD VSS Y
*.PININFO A:I B:I Y:O VDD:B VSS:B
MMN0 net26 B net6 VSS nm1p2_svt_lp W=150n L=60n m=1
MMN1 net6 A VSS VSS nm1p2_svt_lp W=150n L=60n m=1
MMP1 net26 B VDD VDD pm1p2_svt_lp W=190n L=60n m=1
MMP0 net26 A VDD VDD pm1p2_svt_lp W=190n L=60n m=1
XXI2 net26 VDD VSS Y / INV pl=6e-08 pw=5.7e-07 nl=6e-08 nw=4.5e-07
.ENDS

************************************************************************

************************************************************************



************************************************************************
* Library Name: ICSN55H7RVT
* Cell Name:    AND2X4H7R
* View Name:    schematic
************************************************************************

.SUBCKT AND2X4H7R A B VDD VSS Y
*.PININFO A:I B:I Y:O VDD:B VSS:B
MMN0 net26 B net6 VSS nm1p2_svt_lp W=300n L=60n m=1
MMN1 net6 A VSS VSS nm1p2_svt_lp W=300n L=60n m=1
MMP1 net26 B VDD VDD pm1p2_svt_lp W=310n L=60n m=1
MMP0 net26 A VDD VDD pm1p2_svt_lp W=310n L=60n m=1
XXI2 net26 VDD VSS Y / INV pl=6e-08 pw=7.6e-07 nl=6e-08 nw=6e-07
.ENDS

************************************************************************

************************************************************************



************************************************************************
* Library Name: ICSN55H7RVT
* Cell Name:    AND2X6H7R
* View Name:    schematic
************************************************************************

.SUBCKT AND2X6H7R A B VDD VSS Y
*.PININFO A:I B:I Y:O VDD:B VSS:B
MMN0 net26 B net6 VSS nm1p2_svt_lp W=300n L=60n m=1
MMN1 net6 A VSS VSS nm1p2_svt_lp W=300n L=60n m=1
MMP1 net26 B VDD VDD pm1p2_svt_lp W=380n L=60n m=1
MMP0 net26 A VDD VDD pm1p2_svt_lp W=380n L=60n m=1
XXI2 net26 VDD VSS Y / INV pl=6e-08 pw=11.4e-07 nl=6e-08 nw=9e-07
.ENDS

************************************************************************

************************************************************************



************************************************************************
* Library Name: ICSN55H7RVT
* Cell Name:    AND2X8H7R
* View Name:    schematic
************************************************************************

.SUBCKT AND2X8H7R A B VDD VSS Y
*.PININFO A:I B:I Y:O VDD:B VSS:B
MMN0 net26 B net6 VSS nm1p2_svt_lp W=600n L=60n m=1
MMN1 net6 A VSS VSS nm1p2_svt_lp W=600n L=60n m=1
MMP1 net26 B VDD VDD pm1p2_svt_lp W=620n L=60n m=1
MMP0 net26 A VDD VDD pm1p2_svt_lp W=620n L=60n m=1
XXI2 net26 VDD VSS Y / INV pl=6e-08 pw=15.2e-07 nl=6e-08 nw=12e-07
.ENDS

************************************************************************

************************************************************************



************************************************************************
* Library Name: ICSN55H7RVT
* Cell Name:    AND3X0P5H7R
* View Name:    schematic
************************************************************************

.SUBCKT AND3X0P5H7R A B C VDD VSS Y
*.PININFO A:I B:I C:I Y:O VDD:B VSS:B
MMN0 net36 C net10 VSS nm1p2_svt_lp W=150n L=60n m=1
MMN4 net7 A VSS VSS nm1p2_svt_lp W=150n L=60n m=1
MMN3 net10 B net7 VSS nm1p2_svt_lp W=150n L=60n m=1
MMP0 net36 A VDD VDD pm1p2_svt_lp W=150n L=60n m=1
MMP1 net36 B VDD VDD pm1p2_svt_lp W=150n L=60n m=1
MMP2 net36 C VDD VDD pm1p2_svt_lp W=150n L=60n m=1
XI0 net36 VDD VSS Y / INV pl=6e-08 pw=1.9e-07 nl=6e-08 nw=1.5e-07
.ENDS

************************************************************************

************************************************************************



************************************************************************
* Library Name: ICSN55H7RVT
* Cell Name:    AND3X0P7H7R
* View Name:    schematic
************************************************************************

.SUBCKT AND3X0P7H7R A B C VDD VSS Y
*.PININFO A:I B:I C:I Y:O VDD:B VSS:B
MMN3 net10 B net7 VSS nm1p2_svt_lp W=150n L=60n m=1
MMN4 net7 A VSS VSS nm1p2_svt_lp W=150n L=60n m=1
MMN0 net36 C net10 VSS nm1p2_svt_lp W=150n L=60n m=1
MMP2 net36 C VDD VDD pm1p2_svt_lp W=150n L=60n m=1
MMP1 net36 B VDD VDD pm1p2_svt_lp W=150n L=60n m=1
MMP0 net36 A VDD VDD pm1p2_svt_lp W=150n L=60n m=1
XI1 net36 VDD VSS Y / INV pl=6e-08 pw=2.22e-07 nl=6e-08 nw=1.74e-07
.ENDS

************************************************************************

************************************************************************



************************************************************************
* Library Name: ICSN55H7RVT
* Cell Name:    AND3X1H7R
* View Name:    schematic
************************************************************************

.SUBCKT AND3X1H7R A B C VDD VSS Y
*.PININFO A:I B:I C:I Y:O VDD:B VSS:B
MMN3 net10 B net7 VSS nm1p2_svt_lp W=150n L=60n m=1
MMN4 net7 A VSS VSS nm1p2_svt_lp W=150n L=60n m=1
MMN0 net36 C net10 VSS nm1p2_svt_lp W=150n L=60n m=1
MMP2 net36 C VDD VDD pm1p2_svt_lp W=150n L=60n m=1
MMP1 net36 B VDD VDD pm1p2_svt_lp W=150n L=60n m=1
MMP0 net36 A VDD VDD pm1p2_svt_lp W=150n L=60n m=1
XI1 net36 VDD VSS Y / INV pl=6e-08 pw=2.7e-07 nl=6e-08 nw=2.1e-07
.ENDS

************************************************************************

************************************************************************



************************************************************************
* Library Name: ICSN55H7RVT
* Cell Name:    AND3X1P4H7R
* View Name:    schematic
************************************************************************

.SUBCKT AND3X1P4H7R A B C VDD VSS Y
*.PININFO A:I B:I C:I Y:O VDD:B VSS:B
MMN3 net10 B net7 VSS nm1p2_svt_lp W=150n L=60n m=1
MMN4 net7 A VSS VSS nm1p2_svt_lp W=150n L=60n m=1
MMN0 net36 C net10 VSS nm1p2_svt_lp W=150n L=60n m=1
MMP2 net36 C VDD VDD pm1p2_svt_lp W=150n L=60n m=1
MMP1 net36 B VDD VDD pm1p2_svt_lp W=150n L=60n m=1
MMP0 net36 A VDD VDD pm1p2_svt_lp W=150n L=60n m=1
XI1 net36 VDD VSS Y / INV pl=6e-08 pw=3.14e-07 nl=6e-08 nw=2.46e-07
.ENDS

************************************************************************

************************************************************************



************************************************************************
* Library Name: ICSN55H7RVT
* Cell Name:    AND3X2H7R
* View Name:    schematic
************************************************************************

.SUBCKT AND3X2H7R A B C VDD VSS Y
*.PININFO A:I B:I C:I Y:O VDD:B VSS:B
MMN0 net36 C net10 VSS nm1p2_svt_lp W=160n L=60n m=1
MMN4 net7 A VSS VSS nm1p2_svt_lp W=160n L=60n m=1
MMN3 net10 B net7 VSS nm1p2_svt_lp W=160n L=60n m=1
MMP0 net36 A VDD VDD pm1p2_svt_lp W=150n L=60n m=1
MMP1 net36 B VDD VDD pm1p2_svt_lp W=150n L=60n m=1
MMP2 net36 C VDD VDD pm1p2_svt_lp W=150n L=60n m=1
XI0 net36 VDD VSS Y / INV pl=6e-08 pw=3.8e-07 nl=6e-08 nw=3e-07
.ENDS

************************************************************************

************************************************************************



************************************************************************
* Library Name: ICSN55H7RVT
* Cell Name:    AND3X3H7R
* View Name:    schematic
************************************************************************

.SUBCKT AND3X3H7R A B C VDD VSS Y
*.PININFO A:I B:I C:I Y:O VDD:B VSS:B
MMN3 net10 B net7 VSS nm1p2_svt_lp W=150n L=60n m=1
MMN4 net7 A VSS VSS nm1p2_svt_lp W=150n L=60n m=1
MMN0 net36 C net10 VSS nm1p2_svt_lp W=150n L=60n m=1
MMP2 net36 C VDD VDD pm1p2_svt_lp W=190n L=60n m=1
MMP1 net36 B VDD VDD pm1p2_svt_lp W=190n L=60n m=1
MMP0 net36 A VDD VDD pm1p2_svt_lp W=190n L=60n m=1
XI1 net36 VDD VSS Y / INV pl=6e-08 pw=5.7e-07 nl=6e-08 nw=4.5e-07
.ENDS

************************************************************************

************************************************************************



************************************************************************
* Library Name: ICSN55H7RVT
* Cell Name:    AND3X4H7R
* View Name:    schematic
************************************************************************

.SUBCKT AND3X4H7R A B C VDD VSS Y
*.PININFO A:I B:I C:I Y:O VDD:B VSS:B
MMN0 net36 C net10 VSS nm1p2_svt_lp W=300n L=60n m=1
MMN4 net7 A VSS VSS nm1p2_svt_lp W=300n L=60n m=1
MMN3 net10 B net7 VSS nm1p2_svt_lp W=300n L=60n m=1
MMP0 net36 A VDD VDD pm1p2_svt_lp W=270n L=60n m=1
MMP1 net36 B VDD VDD pm1p2_svt_lp W=270n L=60n m=1
MMP2 net36 C VDD VDD pm1p2_svt_lp W=270n L=60n m=1
XI0 net36 VDD VSS Y / INV pl=6e-08 pw=7.6e-07 nl=6e-08 nw=6e-07
.ENDS

************************************************************************

************************************************************************



************************************************************************
* Library Name: ICSN55H7RVT
* Cell Name:    AND3X6H7R
* View Name:    schematic
************************************************************************

.SUBCKT AND3X6H7R A B C VDD VSS Y
*.PININFO A:I B:I C:I Y:O VDD:B VSS:B
MMN0 net36 C net10 VSS nm1p2_svt_lp W=300n L=60n m=1
MMN4 net7 A VSS VSS nm1p2_svt_lp W=300n L=60n m=1
MMN3 net10 B net7 VSS nm1p2_svt_lp W=300n L=60n m=1
MMP0 net36 A VDD VDD pm1p2_svt_lp W=380n L=60n m=1
MMP1 net36 B VDD VDD pm1p2_svt_lp W=380n L=60n m=1
MMP2 net36 C VDD VDD pm1p2_svt_lp W=380n L=60n m=1
XI0 net36 VDD VSS Y / INV pl=6e-08 pw=11.4e-07 nl=6e-08 nw=9e-07
.ENDS

************************************************************************

************************************************************************



************************************************************************
* Library Name: ICSN55H7RVT
* Cell Name:    AND3X8H7R
* View Name:    schematic
************************************************************************

.SUBCKT AND3X8H7R A B C VDD VSS Y
*.PININFO A:I B:I C:I Y:O VDD:B VSS:B
MMN0 net36 C net10 VSS nm1p2_svt_lp W=600n L=60n m=1
MMN4 net7 A VSS VSS nm1p2_svt_lp W=600n L=60n m=1
MMN3 net10 B net7 VSS nm1p2_svt_lp W=600n L=60n m=1
MMP0 net36 A VDD VDD pm1p2_svt_lp W=540n L=60n m=1
MMP1 net36 B VDD VDD pm1p2_svt_lp W=540n L=60n m=1
MMP2 net36 C VDD VDD pm1p2_svt_lp W=540n L=60n m=1
XI0 net36 VDD VSS Y / INV pl=6e-08 pw=15.2e-07 nl=6e-08 nw=12e-07
.ENDS

************************************************************************

************************************************************************



************************************************************************
* Library Name: ICSN55H7RVT
* Cell Name:    AND4X0P5H7R
* View Name:    schematic
************************************************************************

.SUBCKT AND4X0P5H7R A B C D VDD VSS Y
*.PININFO A:I B:I C:I D:I Y:O VDD:B VSS:B
MNM0 net35 D net45 VSS nm1p2_svt_lp W=150n L=60n m=1
MNM1 net45 C net42 VSS nm1p2_svt_lp W=150n L=60n m=1
MNM2 net42 B net39 VSS nm1p2_svt_lp W=150n L=60n m=1
MNM3 net39 A VSS VSS nm1p2_svt_lp W=150n L=60n m=1
MPM0 net35 A VDD VDD pm1p2_svt_lp W=150n L=60n m=1
MPM1 net35 B VDD VDD pm1p2_svt_lp W=150n L=60n m=1
MPM2 net35 C VDD VDD pm1p2_svt_lp W=150n L=60n m=1
MPM3 net35 D VDD VDD pm1p2_svt_lp W=150n L=60n m=1
XI0 net35 VDD VSS Y / INV pl=6e-08 pw=1.9e-07 nl=6e-08 nw=1.5e-07
.ENDS

************************************************************************

************************************************************************



************************************************************************
* Library Name: ICSN55H7RVT
* Cell Name:    AND4X0P7H7R
* View Name:    schematic
************************************************************************

.SUBCKT AND4X0P7H7R A B C D VDD VSS Y
*.PININFO A:I B:I C:I D:I Y:O VDD:B VSS:B
MNM0 net35 D net45 VSS nm1p2_svt_lp W=150n L=60n m=1
MNM1 net45 C net42 VSS nm1p2_svt_lp W=150n L=60n m=1
MNM2 net42 B net39 VSS nm1p2_svt_lp W=150n L=60n m=1
MNM3 net39 A VSS VSS nm1p2_svt_lp W=150n L=60n m=1
MPM0 net35 A VDD VDD pm1p2_svt_lp W=150n L=60n m=1
MPM1 net35 B VDD VDD pm1p2_svt_lp W=150n L=60n m=1
MPM2 net35 C VDD VDD pm1p2_svt_lp W=150n L=60n m=1
MPM3 net35 D VDD VDD pm1p2_svt_lp W=150n L=60n m=1
XI0 net35 VDD VSS Y / INV pl=6e-08 pw=2.22e-07 nl=6e-08 nw=1.74e-07
.ENDS

************************************************************************

************************************************************************



************************************************************************
* Library Name: ICSN55H7RVT
* Cell Name:    AND4X1H7R
* View Name:    schematic
************************************************************************

.SUBCKT AND4X1H7R A B C D VDD VSS Y
*.PININFO A:I B:I C:I D:I Y:O VDD:B VSS:B
MMN4 net7 B net28 VSS nm1p2_svt_lp W=150n L=60n m=1
MMN5 net28 A VSS VSS nm1p2_svt_lp W=150n L=60n m=1